
Version,
  8.9;                                    !- Version Identifier

Timestep,
  6;                                      !- Number of Timesteps per Hour

LifeCycleCost:Parameters,
  {a05bb443-51ba-4b23-91f2-9c1ec65fd133}, !- Name
  EndOfYear,                              !- Discounting Convention
  ConstantDollar,                         !- Inflation Approach
  0.03,                                   !- Real Discount Rate
  ,                                       !- Nominal Discount Rate
  ,                                       !- Inflation
  ,                                       !- Base Date Month
  2011,                                   !- Base Date Year
  ,                                       !- Service Date Month
  2011,                                   !- Service Date Year
  25,                                     !- Length of Study Period in Years
  ,                                       !- Tax rate
  None;                                   !- Depreciation Method

LifeCycleCost:UsePriceEscalation,
  U.S. Avg  Commercial-Electricity,       !- LCC Price Escalation Name
  Electricity,                            !- Resource
  2011,                                   !- Escalation Start Year
  January,                                !- Escalation Start Month
  0.9838,                                 !- Year Escalation 1
  0.9730,                                 !- Year Escalation 2
  0.9632,                                 !- Year Escalation 3
  0.9611,                                 !- Year Escalation 4
  0.9571,                                 !- Year Escalation 5
  0.9553,                                 !- Year Escalation 6
  0.9539,                                 !- Year Escalation 7
  0.9521,                                 !- Year Escalation 8
  0.9546,                                 !- Year Escalation 9
  0.9550,                                 !- Year Escalation 10
  0.9553,                                 !- Year Escalation 11
  0.9564,                                 !- Year Escalation 12
  0.9575,                                 !- Year Escalation 13
  0.9596,                                 !- Year Escalation 14
  0.9618,                                 !- Year Escalation 15
  0.9614,                                 !- Year Escalation 16
  0.9618,                                 !- Year Escalation 17
  0.9618,                                 !- Year Escalation 18
  0.9593,                                 !- Year Escalation 19
  0.9589,                                 !- Year Escalation 20
  0.9607,                                 !- Year Escalation 21
  0.9625,                                 !- Year Escalation 22
  0.9650,                                 !- Year Escalation 23
  0.9708,                                 !- Year Escalation 24
  0.9751,                                 !- Year Escalation 25
  0.9762,                                 !- Year Escalation 26
  0.9766,                                 !- Year Escalation 27
  0.9766,                                 !- Year Escalation 28
  0.9769,                                 !- Year Escalation 29
  0.9773;                                 !- Year Escalation 30

LifeCycleCost:UsePriceEscalation,
  U.S. Avg  Commercial-Distillate Oil,    !- LCC Price Escalation Name
  FuelOil#1,                              !- Resource
  2011,                                   !- Escalation Start Year
  January,                                !- Escalation Start Month
  0.9714,                                 !- Year Escalation 1
  0.9730,                                 !- Year Escalation 2
  0.9942,                                 !- Year Escalation 3
  1.0164,                                 !- Year Escalation 4
  1.0541,                                 !- Year Escalation 5
  1.0928,                                 !- Year Escalation 6
  1.1267,                                 !- Year Escalation 7
  1.1580,                                 !- Year Escalation 8
  1.1792,                                 !- Year Escalation 9
  1.1967,                                 !- Year Escalation 10
  1.2200,                                 !- Year Escalation 11
  1.2333,                                 !- Year Escalation 12
  1.2566,                                 !- Year Escalation 13
  1.2709,                                 !- Year Escalation 14
  1.2826,                                 !- Year Escalation 15
  1.2985,                                 !- Year Escalation 16
  1.3102,                                 !- Year Escalation 17
  1.3250,                                 !- Year Escalation 18
  1.3261,                                 !- Year Escalation 19
  1.3282,                                 !- Year Escalation 20
  1.3324,                                 !- Year Escalation 21
  1.3356,                                 !- Year Escalation 22
  1.3431,                                 !- Year Escalation 23
  1.3510,                                 !- Year Escalation 24
  1.3568,                                 !- Year Escalation 25
  1.3606,                                 !- Year Escalation 26
  1.3637,                                 !- Year Escalation 27
  1.3674,                                 !- Year Escalation 28
  1.3706,                                 !- Year Escalation 29
  1.3743;                                 !- Year Escalation 30

LifeCycleCost:UsePriceEscalation,
  U.S. Avg  Commercial-Residual Oil,      !- LCC Price Escalation Name
  FuelOil#2,                              !- Resource
  2011,                                   !- Escalation Start Year
  January,                                !- Escalation Start Month
  0.8469,                                 !- Year Escalation 1
  0.8257,                                 !- Year Escalation 2
  0.8681,                                 !- Year Escalation 3
  0.8988,                                 !- Year Escalation 4
  0.9289,                                 !- Year Escalation 5
  0.9604,                                 !- Year Escalation 6
  0.9897,                                 !- Year Escalation 7
  1.0075,                                 !- Year Escalation 8
  1.0314,                                 !- Year Escalation 9
  1.0554,                                 !- Year Escalation 10
  1.0861,                                 !- Year Escalation 11
  1.1278,                                 !- Year Escalation 12
  1.1497,                                 !- Year Escalation 13
  1.1620,                                 !- Year Escalation 14
  1.1743,                                 !- Year Escalation 15
  1.1852,                                 !- Year Escalation 16
  1.1948,                                 !- Year Escalation 17
  1.2037,                                 !- Year Escalation 18
  1.2071,                                 !- Year Escalation 19
  1.2119,                                 !- Year Escalation 20
  1.2139,                                 !- Year Escalation 21
  1.2194,                                 !- Year Escalation 22
  1.2276,                                 !- Year Escalation 23
  1.2365,                                 !- Year Escalation 24
  1.2420,                                 !- Year Escalation 25
  1.2461,                                 !- Year Escalation 26
  1.2509,                                 !- Year Escalation 27
  1.2550,                                 !- Year Escalation 28
  1.2591,                                 !- Year Escalation 29
  1.2638;                                 !- Year Escalation 30

LifeCycleCost:UsePriceEscalation,
  U.S. Avg  Commercial-Natural gas,       !- LCC Price Escalation Name
  NaturalGas,                             !- Resource
  2011,                                   !- Escalation Start Year
  January,                                !- Escalation Start Month
  0.9823,                                 !- Year Escalation 1
  0.9557,                                 !- Year Escalation 2
  0.9279,                                 !- Year Escalation 3
  0.9257,                                 !- Year Escalation 4
  0.9346,                                 !- Year Escalation 5
  0.9412,                                 !- Year Escalation 6
  0.9512,                                 !- Year Escalation 7
  0.9645,                                 !- Year Escalation 8
  0.9856,                                 !- Year Escalation 9
  1.0067,                                 !- Year Escalation 10
  1.0222,                                 !- Year Escalation 11
  1.0410,                                 !- Year Escalation 12
  1.0610,                                 !- Year Escalation 13
  1.0787,                                 !- Year Escalation 14
  1.0942,                                 !- Year Escalation 15
  1.1098,                                 !- Year Escalation 16
  1.1220,                                 !- Year Escalation 17
  1.1308,                                 !- Year Escalation 18
  1.1386,                                 !- Year Escalation 19
  1.1486,                                 !- Year Escalation 20
  1.1619,                                 !- Year Escalation 21
  1.1763,                                 !- Year Escalation 22
  1.1918,                                 !- Year Escalation 23
  1.2118,                                 !- Year Escalation 24
  1.2284,                                 !- Year Escalation 25
  1.2439,                                 !- Year Escalation 26
  1.2605,                                 !- Year Escalation 27
  1.2772,                                 !- Year Escalation 28
  1.2938,                                 !- Year Escalation 29
  1.3115;                                 !- Year Escalation 30

LifeCycleCost:UsePriceEscalation,
  U.S. Avg  Commercial-Coal,              !- LCC Price Escalation Name
  Coal,                                   !- Resource
  2011,                                   !- Escalation Start Year
  January,                                !- Escalation Start Month
  0.9970,                                 !- Year Escalation 1
  1.0089,                                 !- Year Escalation 2
  1.0089,                                 !- Year Escalation 3
  0.9941,                                 !- Year Escalation 4
  0.9941,                                 !- Year Escalation 5
  1.0000,                                 !- Year Escalation 6
  1.0030,                                 !- Year Escalation 7
  1.0059,                                 !- Year Escalation 8
  1.0089,                                 !- Year Escalation 9
  1.0119,                                 !- Year Escalation 10
  1.0148,                                 !- Year Escalation 11
  1.0178,                                 !- Year Escalation 12
  1.0208,                                 !- Year Escalation 13
  1.0267,                                 !- Year Escalation 14
  1.0297,                                 !- Year Escalation 15
  1.0356,                                 !- Year Escalation 16
  1.0415,                                 !- Year Escalation 17
  1.0534,                                 !- Year Escalation 18
  1.0564,                                 !- Year Escalation 19
  1.0593,                                 !- Year Escalation 20
  1.0653,                                 !- Year Escalation 21
  1.0712,                                 !- Year Escalation 22
  1.0742,                                 !- Year Escalation 23
  1.0801,                                 !- Year Escalation 24
  1.0831,                                 !- Year Escalation 25
  1.0831,                                 !- Year Escalation 26
  1.0861,                                 !- Year Escalation 27
  1.0890,                                 !- Year Escalation 28
  1.0920,                                 !- Year Escalation 29
  1.0950;                                 !- Year Escalation 30

Building,
  Building 1,                             !- Name
  ,                                       !- North Axis {deg}
  ,                                       !- Terrain
  ,                                       !- Loads Convergence Tolerance Value
  ,                                       !- Temperature Convergence Tolerance Value {deltaC}
  ,                                       !- Solar Distribution
  ,                                       !- Maximum Number of Warmup Days
  ;                                       !- Minimum Number of Warmup Days

Zone,
  01_A1,                                  !- Name
  -0,                                     !- Direction of Relative North {deg}
  19.4795772289305,                       !- X Origin {m}
  4.59840050267269,                       !- Y Origin {m}
  0,                                      !- Z Origin {m}
  ,                                       !- Type
  ,                                       !- Multiplier
  ,                                       !- Ceiling Height {m}
  ,                                       !- Volume {m3}
  ,                                       !- Floor Area {m2}
  CeilingDiffuser,                        !- Zone Inside Convection Algorithm
  ;                                       !- Zone Outside Convection Algorithm

BuildingSurface:Detailed,
  Surface 10,                             !- Name
  Wall,                                   !- Surface Type
  WW300B,                                 !- Construction Name
  01_A1,                                  !- Zone Name
  Outdoors,                               !- Outside Boundary Condition
  ,                                       !- Outside Boundary Condition Object
  SunExposed,                             !- Sun Exposure
  WindExposed,                            !- Wind Exposure
  ,                                       !- View Factor to Ground
  ,                                       !- Number of Vertices
  -7.874, -7.21911419532262e-016, 3.3528, !- X,Y,Z Vertex 1 {m}
  -7.874, -7.21911419532262e-016, 0,      !- X,Y,Z Vertex 2 {m}
  0, 0, 0,                                !- X,Y,Z Vertex 3 {m}
  0, 0, 3.3528;                           !- X,Y,Z Vertex 4 {m}

BuildingSurface:Detailed,
  Surface 11,                             !- Name
  Wall,                                   !- Surface Type
  Interior Wall,                          !- Construction Name
  01_A1,                                  !- Zone Name
  Surface,                                !- Outside Boundary Condition
  Surface 4,                              !- Outside Boundary Condition Object
  NoSun,                                  !- Sun Exposure
  NoWind,                                 !- Wind Exposure
  ,                                       !- View Factor to Ground
  ,                                       !- Number of Vertices
  -7.874, 7.3152, 3.3528,                 !- X,Y,Z Vertex 1 {m}
  -7.874, 7.3152, 0,                      !- X,Y,Z Vertex 2 {m}
  -7.874, -7.21911419532262e-016, 0,      !- X,Y,Z Vertex 3 {m}
  -7.874, -7.21911419532262e-016, 3.3528; !- X,Y,Z Vertex 4 {m}

BuildingSurface:Detailed,
  Surface 12,                             !- Name
  Wall,                                   !- Surface Type
  WW300B,                                 !- Construction Name
  01_A1,                                  !- Zone Name
  Outdoors,                               !- Outside Boundary Condition
  ,                                       !- Outside Boundary Condition Object
  SunExposed,                             !- Sun Exposure
  WindExposed,                            !- Wind Exposure
  ,                                       !- View Factor to Ground
  ,                                       !- Number of Vertices
  -6.1976, 7.3152, 3.3528,                !- X,Y,Z Vertex 1 {m}
  -6.1976, 7.3152, 0,                     !- X,Y,Z Vertex 2 {m}
  -7.874, 7.3152, 0,                      !- X,Y,Z Vertex 3 {m}
  -7.874, 7.3152, 3.3528;                 !- X,Y,Z Vertex 4 {m}

FenestrationSurface:Detailed,
  Sub Surface 63,                         !- Name
  Door,                                   !- Surface Type
  Exterior Door,                          !- Construction Name
  Surface 12,                             !- Building Surface Name
  ,                                       !- Outside Boundary Condition Object
  ,                                       !- View Factor to Ground
  ,                                       !- Shading Control Name
  ,                                       !- Frame and Divider Name
  ,                                       !- Multiplier
  ,                                       !- Number of Vertices
  -6.73099999999998, 7.3152, 2.1336,      !- X,Y,Z Vertex 1 {m}
  -6.73099999999998, 7.3152, 0,           !- X,Y,Z Vertex 2 {m}
  -7.64539999999998, 7.3152, 0,           !- X,Y,Z Vertex 3 {m}
  -7.64539999999998, 7.3152, 2.1336;      !- X,Y,Z Vertex 4 {m}

BuildingSurface:Detailed,
  Surface 13,                             !- Name
  Wall,                                   !- Surface Type
  Interior Wall,                          !- Construction Name
  01_A1,                                  !- Zone Name
  Surface,                                !- Outside Boundary Condition
  Surface 21,                             !- Outside Boundary Condition Object
  NoSun,                                  !- Sun Exposure
  NoWind,                                 !- Wind Exposure
  ,                                       !- View Factor to Ground
  ,                                       !- Number of Vertices
  0, 7.3152, 3.3528,                      !- X,Y,Z Vertex 1 {m}
  0, 7.3152, 0,                           !- X,Y,Z Vertex 2 {m}
  -6.1976, 7.3152, 0,                     !- X,Y,Z Vertex 3 {m}
  -6.1976, 7.3152, 3.3528;                !- X,Y,Z Vertex 4 {m}

BuildingSurface:Detailed,
  Surface 14,                             !- Name
  Wall,                                   !- Surface Type
  WW300B,                                 !- Construction Name
  01_A1,                                  !- Zone Name
  Outdoors,                               !- Outside Boundary Condition
  ,                                       !- Outside Boundary Condition Object
  SunExposed,                             !- Sun Exposure
  WindExposed,                            !- Wind Exposure
  ,                                       !- View Factor to Ground
  ,                                       !- Number of Vertices
  0, 0, 3.3528,                           !- X,Y,Z Vertex 1 {m}
  0, 0, 0,                                !- X,Y,Z Vertex 2 {m}
  0, 7.3152, 0,                           !- X,Y,Z Vertex 3 {m}
  0, 7.3152, 3.3528;                      !- X,Y,Z Vertex 4 {m}

FenestrationSurface:Detailed,
  Sub Surface 51,                         !- Name
  GlassDoor,                              !- Surface Type
  KaterraTypicalWindowResidential,        !- Construction Name
  Surface 14,                             !- Building Surface Name
  ,                                       !- Outside Boundary Condition Object
  ,                                       !- View Factor to Ground
  ,                                       !- Shading Control Name
  ,                                       !- Frame and Divider Name
  ,                                       !- Multiplier
  ,                                       !- Number of Vertices
  0, 4.0894, 2.4384,                      !- X,Y,Z Vertex 1 {m}
  0, 4.0894, 0,                           !- X,Y,Z Vertex 2 {m}
  0, 5.9182, 0,                           !- X,Y,Z Vertex 3 {m}
  0, 5.9182, 2.4384;                      !- X,Y,Z Vertex 4 {m}

FenestrationSurface:Detailed,
  Sub Surface 54,                         !- Name
  Window,                                 !- Surface Type
  KaterraTypicalWindowResidential,        !- Construction Name
  Surface 14,                             !- Building Surface Name
  ,                                       !- Outside Boundary Condition Object
  ,                                       !- View Factor to Ground
  ,                                       !- Shading Control Name
  ,                                       !- Frame and Divider Name
  ,                                       !- Multiplier
  ,                                       !- Number of Vertices
  0, 1.0922, 2.4384,                      !- X,Y,Z Vertex 1 {m}
  0, 1.0922, 0.889,                       !- X,Y,Z Vertex 2 {m}
  0, 2.286, 0.889,                        !- X,Y,Z Vertex 3 {m}
  0, 2.286, 2.4384;                       !- X,Y,Z Vertex 4 {m}

BuildingSurface:Detailed,
  Surface 15,                             !- Name
  Ceiling,                                !- Surface Type
  Interior Ceiling,                       !- Construction Name
  01_A1,                                  !- Zone Name
  Surface,                                !- Outside Boundary Condition
  Surface 45,                             !- Outside Boundary Condition Object
  NoSun,                                  !- Sun Exposure
  NoWind,                                 !- Wind Exposure
  ,                                       !- View Factor to Ground
  ,                                       !- Number of Vertices
  -7.874, -7.21911419532262e-016, 3.3528, !- X,Y,Z Vertex 1 {m}
  0, 0, 3.3528,                           !- X,Y,Z Vertex 2 {m}
  0, 7.3152, 3.3528,                      !- X,Y,Z Vertex 3 {m}
  -7.874, 7.3152, 3.3528;                 !- X,Y,Z Vertex 4 {m}

BuildingSurface:Detailed,
  Surface 9,                              !- Name
  Floor,                                  !- Surface Type
  ExtSlabCarpet 4in ClimateZone 1-8,      !- Construction Name
  01_A1,                                  !- Zone Name
  Ground,                                 !- Outside Boundary Condition
  ,                                       !- Outside Boundary Condition Object
  NoSun,                                  !- Sun Exposure
  NoWind,                                 !- Wind Exposure
  ,                                       !- View Factor to Ground
  ,                                       !- Number of Vertices
  0, 7.3152, 0,                           !- X,Y,Z Vertex 1 {m}
  0, 0, 0,                                !- X,Y,Z Vertex 2 {m}
  -7.874, -7.21911419532262e-016, 0,      !- X,Y,Z Vertex 3 {m}
  -7.874, 7.3152, 0;                      !- X,Y,Z Vertex 4 {m}

Shading:Zone:Detailed,
  Shading Surface 4,                      !- Name
  Surface 14,                             !- Base Surface Name
  ,                                       !- Transmittance Schedule Name
  ,                                       !- Number of Vertices
  0.1524, 3.937, 3.3528,                  !- X,Y,Z Vertex 1 {m}
  0.1524, 6.0706, 3.3528,                 !- X,Y,Z Vertex 2 {m}
  0, 6.0706, 3.3528,                      !- X,Y,Z Vertex 3 {m}
  0, 3.937, 3.3528;                       !- X,Y,Z Vertex 4 {m}

ZoneControl:Thermostat,
  01_A1 Thermostat,                       !- Name
  01_A1,                                  !- Zone or ZoneList Name
  01_A1 Thermostat Schedule,              !- Control Type Schedule Name
  ThermostatSetpoint:DualSetpoint,        !- Control Object Type 1
  Thermostat Setpoint Dual Setpoint 1;    !- Control Name 1

Schedule:Compact,
  01_A1 Thermostat Schedule,              !- Name
  01_A1 Thermostat Schedule Type Limits,  !- Schedule Type Limits Name
  Through: 12/31,                         !- Field 1
  For: AllDays,                           !- Field 2
  Until: 24:00,                           !- Field 3
  4;                                      !- Field 4

ScheduleTypeLimits,
  01_A1 Thermostat Schedule Type Limits,  !- Name
  0,                                      !- Lower Limit Value {BasedOnField A3}
  4,                                      !- Upper Limit Value {BasedOnField A3}
  DISCRETE;                               !- Numeric Type

ThermostatSetpoint:DualSetpoint,
  Thermostat Setpoint Dual Setpoint 1,    !- Name
  MidriseApartment Apartment HtgSetp,     !- Heating Setpoint Temperature Schedule Name
  MidriseApartment Apartment ClgSetp;     !- Cooling Setpoint Temperature Schedule Name

ScheduleTypeLimits,
  Temperature 42,                         !- Name
  ,                                       !- Lower Limit Value {BasedOnField A3}
  ,                                       !- Upper Limit Value {BasedOnField A3}
  Continuous,                             !- Numeric Type
  temperature;                            !- Unit Type

Schedule:Day:Interval,
  MidriseApartment Apartment HtgSetp Default, !- Name
  Temperature 43,                         !- Schedule Type Limits Name
  No,                                     !- Interpolate to Timestep
  24:00,                                  !- Time 1 {hh:mm}
  21.1111111111111;                       !- Value Until Time 1

ScheduleTypeLimits,
  Temperature 43,                         !- Name
  ,                                       !- Lower Limit Value {BasedOnField A3}
  ,                                       !- Upper Limit Value {BasedOnField A3}
  Continuous,                             !- Numeric Type
  temperature;                            !- Unit Type

Schedule:Week:Daily,
  Schedule:Week:Daily {7faf3b08-c1a9-41ab-ad82-a2ea18045a0a}, !- Name
  MidriseApartment Apartment HtgSetp Default, !- Sunday Schedule:Day Name
  MidriseApartment Apartment HtgSetp Default, !- Monday Schedule:Day Name
  MidriseApartment Apartment HtgSetp Default, !- Tuesday Schedule:Day Name
  MidriseApartment Apartment HtgSetp Default, !- Wednesday Schedule:Day Name
  MidriseApartment Apartment HtgSetp Default, !- Thursday Schedule:Day Name
  MidriseApartment Apartment HtgSetp Default, !- Friday Schedule:Day Name
  MidriseApartment Apartment HtgSetp Default, !- Saturday Schedule:Day Name
  MidriseApartment Apartment HtgSetp Default, !- Holiday Schedule:Day Name
  MidriseApartment Apartment HtgSetp Summer Design Day, !- SummerDesignDay Schedule:Day Name
  MidriseApartment Apartment HtgSetp Winter Design Day, !- WinterDesignDay Schedule:Day Name
  MidriseApartment Apartment HtgSetp Default, !- CustomDay1 Schedule:Day Name
  MidriseApartment Apartment HtgSetp Default; !- CustomDay2 Schedule:Day Name

Schedule:Year,
  MidriseApartment Apartment HtgSetp,     !- Name
  Temperature 42,                         !- Schedule Type Limits Name
  Schedule:Week:Daily {7faf3b08-c1a9-41ab-ad82-a2ea18045a0a}, !- Schedule:Week Name 1
  1,                                      !- Start Month 1
  1,                                      !- Start Day 1
  12,                                     !- End Month 1
  31;                                     !- End Day 1

Schedule:Day:Interval,
  MidriseApartment Apartment HtgSetp Summer Design Day, !- Name
  Temperature 44,                         !- Schedule Type Limits Name
  No,                                     !- Interpolate to Timestep
  24:00,                                  !- Time 1 {hh:mm}
  21.1;                                   !- Value Until Time 1

ScheduleTypeLimits,
  Temperature 44,                         !- Name
  ,                                       !- Lower Limit Value {BasedOnField A3}
  ,                                       !- Upper Limit Value {BasedOnField A3}
  Continuous,                             !- Numeric Type
  temperature;                            !- Unit Type

Schedule:Day:Interval,
  MidriseApartment Apartment HtgSetp Winter Design Day, !- Name
  Temperature 45,                         !- Schedule Type Limits Name
  No,                                     !- Interpolate to Timestep
  24:00,                                  !- Time 1 {hh:mm}
  21.1;                                   !- Value Until Time 1

ScheduleTypeLimits,
  Temperature 45,                         !- Name
  ,                                       !- Lower Limit Value {BasedOnField A3}
  ,                                       !- Upper Limit Value {BasedOnField A3}
  Continuous,                             !- Numeric Type
  temperature;                            !- Unit Type

ScheduleTypeLimits,
  Temperature 38,                         !- Name
  ,                                       !- Lower Limit Value {BasedOnField A3}
  ,                                       !- Upper Limit Value {BasedOnField A3}
  Continuous,                             !- Numeric Type
  temperature;                            !- Unit Type

Schedule:Day:Interval,
  MidriseApartment Apartment ClgSetp Default, !- Name
  Temperature 39,                         !- Schedule Type Limits Name
  No,                                     !- Interpolate to Timestep
  24:00,                                  !- Time 1 {hh:mm}
  23.8888888888889;                       !- Value Until Time 1

ScheduleTypeLimits,
  Temperature 39,                         !- Name
  ,                                       !- Lower Limit Value {BasedOnField A3}
  ,                                       !- Upper Limit Value {BasedOnField A3}
  Continuous,                             !- Numeric Type
  temperature;                            !- Unit Type

Schedule:Week:Daily,
  Schedule:Week:Daily {c8f3c331-a062-4c1e-a8e6-a0992345c660}, !- Name
  MidriseApartment Apartment ClgSetp Default, !- Sunday Schedule:Day Name
  MidriseApartment Apartment ClgSetp Default, !- Monday Schedule:Day Name
  MidriseApartment Apartment ClgSetp Default, !- Tuesday Schedule:Day Name
  MidriseApartment Apartment ClgSetp Default, !- Wednesday Schedule:Day Name
  MidriseApartment Apartment ClgSetp Default, !- Thursday Schedule:Day Name
  MidriseApartment Apartment ClgSetp Default, !- Friday Schedule:Day Name
  MidriseApartment Apartment ClgSetp Default, !- Saturday Schedule:Day Name
  MidriseApartment Apartment ClgSetp Default, !- Holiday Schedule:Day Name
  MidriseApartment Apartment ClgSetp Summer Design Day, !- SummerDesignDay Schedule:Day Name