!- Windows Line endings 

Version,
    8.9;                      !- Version Identifier

SimulationControl,
    Yes,                      !- Do Zone Sizing Calculation
    Yes,                      !- Do System Sizing Calculation
    No,                       !- Do Plant Sizing Calculation
    Yes,                      !- Run Simulation for Sizing Periods
    Yes;                      !- Run Simulation for Weather File Run Periods

Building,
    KA2 A Flatroof Sample Building,    !- Name
    ,                         !- North Axis
    ,                         !- Terrain
    ,                         !- Loads Convergence Tolerance Value
    ,                         !- Temperature Convergence Tolerance Value
    ,                         !- Solar Distribution
    ,                         !- Maximum Number of Warmup Days
    ;                         !- Minimum Number of Warmup Days

ShadowCalculation,
    AverageOverDaysInFrequency,    !- Calculation Method
    20,                       !- Calculation Frequency
    15000;                    !- Maximum Figures in Shadow Overlap Calculations

SurfaceConvectionAlgorithm:Inside,
    TARP;                     !- Algorithm

SurfaceConvectionAlgorithm:Outside,
    DOE-2;                    !- Algorithm

HeatBalanceAlgorithm,
    ConductionTransferFunction,    !- Algorithm
    200.0;                    !- Surface Temperature Upper Limit

ZoneAirHeatBalanceAlgorithm,
    ThirdOrderBackwardDifference;    !- Algorithm

ZoneAirContaminantBalance,
    No;                       !- Carbon Dioxide Concentration

ZoneCapacitanceMultiplier:ResearchSpecial,
    {7fed31ef-1078-48d9-a1e5-c6baf0f9f841},    !- Name
    ,                         !- Zone or ZoneList Name
    ,                         !- Temperature Capacity Multiplier
    ,                         !- Humidity Capacity Multiplier
    ,                         !- Carbon Dioxide Capacity Multiplier
    ;                         !- Generic Contaminant Capacity Multiplier

Timestep,
    6;                        !- Number of Timesteps per Hour

ConvergenceLimits,
    1;                        !- Minimum System Timestep

Site:Location,
    LakeHoodSeaplane_AK_USADesign_Conditions,    !- Name
    61.18,                    !- Latitude
    -149.97,                  !- Longitude
    -9.00,                    !- Time Zone
    22.00;                    !- Elevation

SizingPeriod:DesignDay,
    LakeHoodSeaplaneAnnClg.4CondnsDBMWB,    !- Name
    7,                        !- Month
    21,                       !- Day of Month
    SummerDesignDay,          !- Day Type
    23.6,                     !- Maximum DryBulb Temperature
    6.8,                      !- Daily DryBulb Temperature Range
    DefaultMultipliers,       !- DryBulb Temperature Range Modifier Type
    ,                         !- DryBulb Temperature Range Modifier Day Schedule Name
    Wetbulb,                  !- Humidity Condition Type
    15.4,                     !- Wetbulb or DewPoint at Maximum DryBulb
    ,                         !- Humidity Condition Day Schedule Name
    ,                         !- Humidity Ratio at Maximum DryBulb
    ,                         !- Enthalpy at Maximum DryBulb
    ,                         !- Daily WetBulb Temperature Range
    101061.,                  !- Barometric Pressure
    2.9,                      !- Wind Speed
    270,                      !- Wind Direction
    No,                       !- Rain Indicator
    No,                       !- Snow Indicator
    No,                       !- Daylight Saving Time Indicator
    ASHRAETau,                !- Solar Model Indicator
    ,                         !- Beam Solar Day Schedule Name
    ,                         !- Diffuse Solar Day Schedule Name
    0.388,                    !- ASHRAE Clear Sky Optical Depth for Beam Irradiance taub
    2.167;                    !- ASHRAE Clear Sky Optical Depth for Diffuse Irradiance taud

SizingPeriod:DesignDay,
    LakeHoodSeaplaneAnnClg.4CondnsDPMDB,    !- Name
    7,                        !- Month
    21,                       !- Day of Month
    SummerDesignDay,          !- Day Type
    17.1,                     !- Maximum DryBulb Temperature
    6.8,                      !- Daily DryBulb Temperature Range
    DefaultMultipliers,       !- DryBulb Temperature Range Modifier Type
    ,                         !- DryBulb Temperature Range Modifier Day Schedule Name
    Dewpoint,                 !- Humidity Condition Type
    13.8,                     !- Wetbulb or DewPoint at Maximum DryBulb
    ,                         !- Humidity Condition Day Schedule Name
    ,                         !- Humidity Ratio at Maximum DryBulb
    ,                         !- Enthalpy at Maximum DryBulb
    ,                         !- Daily WetBulb Temperature Range
    101061.,                  !- Barometric Pressure
    2.9,                      !- Wind Speed
    270,                      !- Wind Direction
    No,                       !- Rain Indicator
    No,                       !- Snow Indicator
    No,                       !- Daylight Saving Time Indicator
    ASHRAETau,                !- Solar Model Indicator
    ,                         !- Beam Solar Day Schedule Name
    ,                         !- Diffuse Solar Day Schedule Name
    0.388,                    !- ASHRAE Clear Sky Optical Depth for Beam Irradiance taub
    2.167;                    !- ASHRAE Clear Sky Optical Depth for Diffuse Irradiance taud

SizingPeriod:DesignDay,
    LakeHoodSeaplaneAnnClg.4CondnsEnthMDB,    !- Name
    7,                        !- Month
    21,                       !- Day of Month
    SummerDesignDay,          !- Day Type
    22.2,                     !- Maximum DryBulb Temperature
    6.8,                      !- Daily DryBulb Temperature Range
    DefaultMultipliers,       !- DryBulb Temperature Range Modifier Type
    ,                         !- DryBulb Temperature Range Modifier Day Schedule Name
    Enthalpy,                 !- Humidity Condition Type
    ,                         !- Wetbulb or DewPoint at Maximum DryBulb
    ,                         !- Humidity Condition Day Schedule Name
    ,                         !- Humidity Ratio at Maximum DryBulb
    45200.0,                  !- Enthalpy at Maximum DryBulb
    ,                         !- Daily WetBulb Temperature Range
    101061.,                  !- Barometric Pressure
    2.9,                      !- Wind Speed
    270,                      !- Wind Direction
    No,                       !- Rain Indicator
    No,                       !- Snow Indicator
    No,                       !- Daylight Saving Time Indicator
    ASHRAETau,                !- Solar Model Indicator
    ,                         !- Beam Solar Day Schedule Name
    ,                         !- Diffuse Solar Day Schedule Name
    0.388,                    !- ASHRAE Clear Sky Optical Depth for Beam Irradiance taub
    2.167;                    !- ASHRAE Clear Sky Optical Depth for Diffuse Irradiance taud

SizingPeriod:DesignDay,
    LakeHoodSeaplaneAnnClg.4CondnsWBMDB,    !- Name
    7,                        !- Month
    21,                       !- Day of Month
    SummerDesignDay,          !- Day Type
    22.2,                     !- Maximum DryBulb Temperature
    6.8,                      !- Daily DryBulb Temperature Range
    DefaultMultipliers,       !- DryBulb Temperature Range Modifier Type
    ,                         !- DryBulb Temperature Range Modifier Day Schedule Name
    Wetbulb,                  !- Humidity Condition Type
    16.2,                     !- Wetbulb or DewPoint at Maximum DryBulb
    ,                         !- Humidity Condition Day Schedule Name
    ,                         !- Humidity Ratio at Maximum DryBulb
    ,                         !- Enthalpy at Maximum DryBulb
    ,                         !- Daily WetBulb Temperature Range
    101061.,                  !- Barometric Pressure
    2.9,                      !- Wind Speed
    270,                      !- Wind Direction
    No,                       !- Rain Indicator
    No,                       !- Snow Indicator
    No,                       !- Daylight Saving Time Indicator
    ASHRAETau,                !- Solar Model Indicator
    ,                         !- Beam Solar Day Schedule Name
    ,                         !- Diffuse Solar Day Schedule Name
    0.388,                    !- ASHRAE Clear Sky Optical Depth for Beam Irradiance taub
    2.167;                    !- ASHRAE Clear Sky Optical Depth for Diffuse Irradiance taud

SizingPeriod:DesignDay,
    LakeHoodSeaplaneAnnHtg99.6CondnsDB,    !- Name
    1,                        !- Month
    21,                       !- Day of Month
    WinterDesignDay,          !- Day Type
    -22.6,                    !- Maximum DryBulb Temperature
    0.0,                      !- Daily DryBulb Temperature Range
    DefaultMultipliers,       !- DryBulb Temperature Range Modifier Type
    ,                         !- DryBulb Temperature Range Modifier Day Schedule Name
    Wetbulb,                  !- Humidity Condition Type
    -22.6,                    !- Wetbulb or DewPoint at Maximum DryBulb
    ,                         !- Humidity Condition Day Schedule Name
    ,                         !- Humidity Ratio at Maximum DryBulb
    ,                         !- Enthalpy at Maximum DryBulb
    ,                         !- Daily WetBulb Temperature Range
    101061.,                  !- Barometric Pressure
    1.1,                      !- Wind Speed
    350,                      !- Wind Direction
    No,                       !- Rain Indicator
    No,                       !- Snow Indicator
    No,                       !- Daylight Saving Time Indicator
    ASHRAEClearSky,           !- Solar Model Indicator
    ,                         !- Beam Solar Day Schedule Name
    ,                         !- Diffuse Solar Day Schedule Name
    ,                         !- ASHRAE Clear Sky Optical Depth for Beam Irradiance taub
    ,                         !- ASHRAE Clear Sky Optical Depth for Diffuse Irradiance taud
    0.0;                      !- Sky Clearness

SizingPeriod:DesignDay,
    LakeHoodSeaplaneAnnHtgWind99.6CondnsWSMCDB,    !- Name
    1,                        !- Month
    21,                       !- Day of Month
    WinterDesignDay,          !- Day Type
    -8.6,                     !- Maximum DryBulb Temperature
    0.0,                      !- Daily DryBulb Temperature Range
    DefaultMultipliers,       !- DryBulb Temperature Range Modifier Type
    ,                         !- DryBulb Temperature Range Modifier Day Schedule Name
    Wetbulb,                  !- Humidity Condition Type
    -8.6,                     !- Wetbulb or DewPoint at Maximum DryBulb
    ,                         !- Humidity Condition Day Schedule Name
    ,                         !- Humidity Ratio at Maximum DryBulb
    ,                         !- Enthalpy at Maximum DryBulb
    ,                         !- Daily WetBulb Temperature Range
    101061.,                  !- Barometric Pressure
    9.4,                      !- Wind Speed
    350,                      !- Wind Direction
    No,                       !- Rain Indicator
    No,                       !- Snow Indicator
    No,                       !- Daylight Saving Time Indicator
    ASHRAEClearSky,           !- Solar Model Indicator
    ,                         !- Beam Solar Day Schedule Name
    ,                         !- Diffuse Solar Day Schedule Name
    ,                         !- ASHRAE Clear Sky Optical Depth for Beam Irradiance taub
    ,                         !- ASHRAE Clear Sky Optical Depth for Diffuse Irradiance taud
    0.0;                      !- Sky Clearness

SizingPeriod:DesignDay,
    LakeHoodSeaplaneAnnHum_n99.6CondnsDPMCDB,    !- Name
    1,                        !- Month
    21,                       !- Day of Month
    WinterDesignDay,          !- Day Type
    -20.4,                    !- Maximum DryBulb Temperature
    0.0,                      !- Daily DryBulb Temperature Range
    DefaultMultipliers,       !- DryBulb Temperature Range Modifier Type
    ,                         !- DryBulb Temperature Range Modifier Day Schedule Name
    Dewpoint,                 !- Humidity Condition Type
    -27.5,                    !- Wetbulb or DewPoint at Maximum DryBulb
    ,                         !- Humidity Condition Day Schedule Name
    ,                         !- Humidity Ratio at Maximum DryBulb
    ,                         !- Enthalpy at Maximum DryBulb
    ,                         !- Daily WetBulb Temperature Range
    101061.,                  !- Barometric Pressure
    1.1,                      !- Wind Speed
    350,                      !- Wind Direction
    No,                       !- Rain Indicator
    No,                       !- Snow Indicator
    No,                       !- Daylight Saving Time Indicator
    ASHRAEClearSky,           !- Solar Model Indicator
    ,                         !- Beam Solar Day Schedule Name
    ,                         !- Diffuse Solar Day Schedule Name
    ,                         !- ASHRAE Clear Sky Optical Depth for Beam Irradiance taub
    ,                         !- ASHRAE Clear Sky Optical Depth for Diffuse Irradiance taud
    0.0;                      !- Sky Clearness

RunPeriod,
    Run Period 1,             !- Name
    1,                        !- Begin Month
    1,                        !- Begin Day of Month
    12,                       !- End Month
    31,                       !- End Day of Month
    Sunday,                   !- Day of Week for Start Day
    No,                       !- Use Weather File Holidays and Special Days
    No,                       !- Use Weather File Daylight Saving Period
    No,                       !- Apply Weekend Holiday Rule
    Yes,                      !- Use Weather File Rain Indicators
    Yes,                      !- Use Weather File Snow Indicators
    1;                        !- Number of Times Runperiod to be Repeated

ScheduleTypeLimits,
    01_A1 Thermostat Schedule Type Limits,    !- Name
    0,                        !- Lower Limit Value
    4,                        !- Upper Limit Value
    DISCRETE;                 !- Numeric Type

ScheduleTypeLimits,
    Temperature 42,           !- Name
    ,                         !- Lower Limit Value
    ,                         !- Upper Limit Value
    Continuous,               !- Numeric Type
    temperature;              !- Unit Type

ScheduleTypeLimits,
    Temperature 43,           !- Name
    ,                         !- Lower Limit Value
    ,                         !- Upper Limit Value
    Continuous,               !- Numeric Type
    temperature;              !- Unit Type

ScheduleTypeLimits,
    Temperature 44,           !- Name
    ,                         !- Lower Limit Value
    ,                         !- Upper Limit Value
    Continuous,               !- Numeric Type
    temperature;              !- Unit Type

ScheduleTypeLimits,
    Temperature 45,           !- Name
    ,                         !- Lower Limit Value
    ,                         !- Upper Limit Value
    Continuous,               !- Numeric Type
    temperature;              !- Unit Type

ScheduleTypeLimits,
    Temperature 38,           !- Name
    ,                         !- Lower Limit Value
    ,                         !- Upper Limit Value
    Continuous,               !- Numeric Type
    temperature;              !- Unit Type

ScheduleTypeLimits,
    Temperature 39,           !- Name
    ,                         !- Lower Limit Value
    ,                         !- Upper Limit Value
    Continuous,               !- Numeric Type
    temperature;              !- Unit Type

ScheduleTypeLimits,
    Temperature 40,           !- Name
    ,                         !- Lower Limit Value
    ,                         !- Upper Limit Value
    Continuous,               !- Numeric Type
    temperature;              !- Unit Type

ScheduleTypeLimits,
    Temperature 41,           !- Name
    ,                         !- Lower Limit Value
    ,                         !- Upper Limit Value
    Continuous,               !- Numeric Type
    temperature;              !- Unit Type

ScheduleTypeLimits,
    01_A2 Thermostat Schedule Type Limits,    !- Name
    0,                        !- Lower Limit Value
    4,                        !- Upper Limit Value
    DISCRETE;                 !- Numeric Type

ScheduleTypeLimits,
    01_B2 Thermostat Schedule Type Limits,    !- Name
    0,                        !- Lower Limit Value
    4,                        !- Upper Limit Value
    DISCRETE;                 !- Numeric Type

ScheduleTypeLimits,
    01_C1 Thermostat Schedule Type Limits,    !- Name
    0,                        !- Lower Limit Value
    4,                        !- Upper Limit Value
    DISCRETE;                 !- Numeric Type

ScheduleTypeLimits,
    02_A1 Thermostat Schedule Type Limits,    !- Name
    0,                        !- Lower Limit Value
    4,                        !- Upper Limit Value
    DISCRETE;                 !- Numeric Type

ScheduleTypeLimits,
    02_A2 Thermostat Schedule Type Limits,    !- Name
    0,                        !- Lower Limit Value
    4,                        !- Upper Limit Value
    DISCRETE;                 !- Numeric Type

ScheduleTypeLimits,
    02_B2 Thermostat Schedule Type Limits,    !- Name
    0,                        !- Lower Limit Value
    4,                        !- Upper Limit Value
    DISCRETE;                 !- Numeric Type

ScheduleTypeLimits,
    02_C1 Thermostat Schedule Type Limits,    !- Name
    0,                        !- Lower Limit Value
    4,                        !- Upper Limit Value
    DISCRETE;                 !- Numeric Type

ScheduleTypeLimits,
    03_A1 Thermostat Schedule Type Limits,    !- Name
    0,                        !- Lower Limit Value
    4,                        !- Upper Limit Value
    DISCRETE;                 !- Numeric Type

ScheduleTypeLimits,
    03_A2 Thermostat Schedule Type Limits,    !- Name
    0,                        !- Lower Limit Value
    4,                        !- Upper Limit Value
    DISCRETE;                 !- Numeric Type

ScheduleTypeLimits,
    03_B2 Thermostat Schedule Type Limits,    !- Name
    0,                        !- Lower Limit Value
    4,                        !- Upper Limit Value
    DISCRETE;                 !- Numeric Type

ScheduleTypeLimits,
    03_C1 Thermostat Schedule Type Limits,    !- Name
    0,                        !- Lower Limit Value
    4,                        !- Upper Limit Value
    DISCRETE;                 !- Numeric Type

ScheduleTypeLimits,
    ActivityLevel,            !- Name
    0,                        !- Lower Limit Value
    ,                         !- Upper Limit Value
    Continuous,               !- Numeric Type
    activitylevel;            !- Unit Type

ScheduleTypeLimits,
    ActivityLevel 1,          !- Name
    0,                        !- Lower Limit Value
    ,                         !- Upper Limit Value
    Continuous,               !- Numeric Type
    activitylevel;            !- Unit Type

ScheduleTypeLimits,
    ActivityLevel 12,         !- Name
    0,                        !- Lower Limit Value
    ,                         !- Upper Limit Value
    Continuous,               !- Numeric Type
    activitylevel;            !- Unit Type

ScheduleTypeLimits,
    ActivityLevel 13,         !- Name
    0,                        !- Lower Limit Value
    ,                         !- Upper Limit Value
    Continuous,               !- Numeric Type
    activitylevel;            !- Unit Type

ScheduleTypeLimits,
    ActivityLevel 5,          !- Name
    0,                        !- Lower Limit Value
    ,                         !- Upper Limit Value
    Continuous,               !- Numeric Type
    activitylevel;            !- Unit Type

ScheduleTypeLimits,
    Capacity,                 !- Name
    0,                        !- Lower Limit Value
    ,                         !- Upper Limit Value
    Continuous,               !- Numeric Type
    capacity;                 !- Unit Type

ScheduleTypeLimits,
    Any Number;               !- Name

ScheduleTypeLimits,
    DeltaTemperature,         !- Name
    ,                         !- Lower Limit Value
    ,                         !- Upper Limit Value
    Continuous,               !- Numeric Type
    deltatemperature;         !- Unit Type

ScheduleTypeLimits,
    Dimensionless,            !- Name
    ,                         !- Lower Limit Value
    ,                         !- Upper Limit Value
    Continuous;               !- Numeric Type

ScheduleTypeLimits,
    Dimensionless 1,          !- Name
    -1,                       !- Lower Limit Value
    1,                        !- Upper Limit Value
    Continuous;               !- Numeric Type

ScheduleTypeLimits,
    Dimensionless 2,          !- Name
    0.1,                      !- Lower Limit Value
    1000,                     !- Upper Limit Value
    Continuous;               !- Numeric Type

ScheduleTypeLimits,
    Dimensionless 3,          !- Name
    0,                        !- Lower Limit Value
    1,                        !- Upper Limit Value
    Continuous,               !- Numeric Type
    dimensionless;            !- Unit Type

ScheduleTypeLimits,
    Fraction,                 !- Name
    0,                        !- Lower Limit Value
    1,                        !- Upper Limit Value
    CONTINUOUS;               !- Numeric Type

ScheduleTypeLimits,
    Fractional,               !- Name
    0,                        !- Lower Limit Value
    1,                        !- Upper Limit Value
    Continuous;               !- Numeric Type

ScheduleTypeLimits,
    Min Max Temp w Deadband Max Limits,    !- Name
    ,                         !- Lower Limit Value
    ,                         !- Upper Limit Value
    Continuous,               !- Numeric Type
    temperature;              !- Unit Type

ScheduleTypeLimits,
    Min Max Temp w Deadband Min Limits,    !- Name
    ,                         !- Lower Limit Value
    ,                         !- Upper Limit Value
    Continuous,               !- Numeric Type
    temperature;              !- Unit Type

ScheduleTypeLimits,
    OnOff,                    !- Name
    0,                        !- Lower Limit Value
    1,                        !- Upper Limit Value
    Discrete,                 !- Numeric Type
    availability;             !- Unit Type

ScheduleTypeLimits,
    OnOff 1,                  !- Name
    0,                        !- Lower Limit Value
    1,                        !- Upper Limit Value
    Discrete,                 !- Numeric Type
    availability;             !- Unit Type

ScheduleTypeLimits,
    OnOff hvac_library,       !- Name
    0,                        !- Lower Limit Value
    1,                        !- Upper Limit Value
    Discrete,                 !- Numeric Type
    availability;             !- Unit Type

ScheduleTypeLimits,
    Percent,                  !- Name
    0,                        !- Lower Limit Value
    100,                      !- Upper Limit Value
    Continuous,               !- Numeric Type
    percent;                  !- Unit Type

ScheduleTypeLimits,
    Temperature,              !- Name
    0,                        !- Lower Limit Value
    100,                      !- Upper Limit Value
    Continuous,               !- Numeric Type
    temperature;              !- Unit Type

ScheduleTypeLimits,
    Temperature 11,           !- Name
    ,                         !- Lower Limit Value
    ,                         !- Upper Limit Value
    Continuous,               !- Numeric Type
    temperature;              !- Unit Type

ScheduleTypeLimits,
    Temperature 3,            !- Name
    ,                         !- Lower Limit Value
    ,                         !- Upper Limit Value
    Continuous,               !- Numeric Type
    temperature;              !- Unit Type

ScheduleTypeLimits,
    Temperature 36,           !- Name
    ,                         !- Lower Limit Value
    ,                         !- Upper Limit Value
    Continuous,               !- Numeric Type
    temperature;              !- Unit Type

ScheduleTypeLimits,
    Temperature 37,           !- Name
    ,                         !- Lower Limit Value
    ,                         !- Upper Limit Value
    Continuous,               !- Numeric Type
    temperature;              !- Unit Type

ScheduleTypeLimits,
    Temperature 4,            !- Name
    ,                         !- Lower Limit Value
    ,                         !- Upper Limit Value
    Continuous,               !- Numeric Type
    temperature;              !- Unit Type

ScheduleTypeLimits,
    Temperature 46,           !- Name
    ,                         !- Lower Limit Value
    ,                         !- Upper Limit Value
    Continuous,               !- Numeric Type
    temperature;              !- Unit Type

ScheduleTypeLimits,
    Temperature 47,           !- Name
    ,                         !- Lower Limit Value
    ,                         !- Upper Limit Value
    Continuous,               !- Numeric Type
    temperature;              !- Unit Type

ScheduleTypeLimits,
    Temperature 5,            !- Name
    ,                         !- Lower Limit Value
    ,                         !- Upper Limit Value
    Continuous,               !- Numeric Type
    temperature;              !- Unit Type

ScheduleTypeLimits,
    Velocity,                 !- Name
    0,                        !- Lower Limit Value
    ,                         !- Upper Limit Value
    Continuous,               !- Numeric Type
    velocity;                 !- Unit Type

Schedule:Day:Interval,
    MidriseApartment Apartment HtgSetp Default,    !- Name
    Temperature 43,           !- Schedule Type Limits Name
    No,                       !- Interpolate to Timestep
    24:00,                    !- Time 1
    21.1111111111111;         !- Value Until Time 1

Schedule:Day:Interval,
    MidriseApartment Apartment HtgSetp Summer Design Day,    !- Name
    Temperature 44,           !- Schedule Type Limits Name
    No,                       !- Interpolate to Timestep
    24:00,                    !- Time 1
    21.1;                     !- Value Until Time 1

Schedule:Day:Interval,
    MidriseApartment Apartment HtgSetp Winter Design Day,    !- Name
    Temperature 45,           !- Schedule Type Limits Name
    No,                       !- Interpolate to Timestep
    24:00,                    !- Time 1
    21.1;                     !- Value Until Time 1

Schedule:Day:Interval,
    MidriseApartment Apartment ClgSetp Default,    !- Name
    Temperature 39,           !- Schedule Type Limits Name
    No,                       !- Interpolate to Timestep
    24:00,                    !- Time 1
    23.8888888888889;         !- Value Until Time 1

Schedule:Day:Interval,
    MidriseApartment Apartment ClgSetp Summer Design Day,    !- Name
    Temperature 40,           !- Schedule Type Limits Name
    No,                       !- Interpolate to Timestep
    24:00,                    !- Time 1
    23.9;                     !- Value Until Time 1

Schedule:Day:Interval,
    MidriseApartment Apartment ClgSetp Winter Design Day,    !- Name
    Temperature 41,           !- Schedule Type Limits Name
    No,                       !- Interpolate to Timestep
    24:00,                    !- Time 1
    23.9;                     !- Value Until Time 1

Schedule:Day:Interval,
    Always Off Schedule Day,    !- Name
    Fractional,               !- Schedule Type Limits Name
    No,                       !- Interpolate to Timestep
    24:00,                    !- Time 1
    0;                        !- Value Until Time 1

Schedule:Day:Interval,
    ApartmentMidRise EQP_APT_SCH Default,    !- Name
    Fractional,               !- Schedule Type Limits Name
    No,                       !- Interpolate to Timestep
    01:00,                    !- Time 1
    0.0287999995052814,       !- Value Until Time 1
    02:00,                    !- Time 2
    0.0262000001966953,       !- Value Until Time 2
    03:00,                    !- Time 3
    0.025000000372529,        !- Value Until Time 3
    05:00,                    !- Time 4
    0.0243999995291233,       !- Value Until Time 4
    06:00,                    !- Time 5
    0.0274999998509884,       !- Value Until Time 5
    07:00,                    !- Time 6
    0.0342000015079975,       !- Value Until Time 6
    08:00,                    !- Time 7
    0.0414000004529953,       !- Value Until Time 7
    09:00,                    !- Time 8
    0.0421999990940094,       !- Value Until Time 8
    10:00,                    !- Time 9
    0.0430999994277954,       !- Value Until Time 9
    11:00,                    !- Time 10
    0.0439000017940998,       !- Value Until Time 10
    12:00,                    !- Time 11
    0.0445000007748604,       !- Value Until Time 11
    13:00,                    !- Time 12
    0.0438000001013279,       !- Value Until Time 12
    14:00,                    !- Time 13
    0.0423000007867813,       !- Value Until Time 13
    15:00,                    !- Time 14
    0.0412999987602234,       !- Value Until Time 14
    16:00,                    !- Time 15
    0.0434000007808208,       !- Value Until Time 15
    17:00,                    !- Time 16
    0.0507000014185905,       !- Value Until Time 16
    19:00,                    !- Time 17
    0.063900001347065,        !- Value Until Time 17
    20:00,                    !- Time 18
    0.0588000006973743,       !- Value Until Time 18
    21:00,                    !- Time 19
    0.0564999990165234,       !- Value Until Time 19
    22:00,                    !- Time 20